5
 energy: -6.415860353927 gnorm: 0.000366665893 xtb: 6.5.1 (unknown)
C            0.01337698763722       -0.02385306144922        0.00931322755503
H            0.03123396439577       -0.05423354768022        1.11370036632511
H            1.06055363431484       -0.05442459999640       -0.34174558138147
H           -0.48317430428940       -0.94633710090800       -0.34150756035357
N           -0.62249028205843        1.07884831003384       -0.43976045214510
