6
 energy: -10.543382902694 gnorm: 0.000984436742 xtb: 6.5.1 (unknown)
C            0.03606315171816       -0.10238795911990        0.06907273848851
H            0.23751050824127       -0.13306248918039        1.14113937913554
H            0.99978972782761        0.00005158409949       -0.43098712475105
H           -0.48645346503952       -1.00510942603456       -0.26006687840912
N           -0.69096034188496        1.11476734054794       -0.17514063987357
O           -1.77330958086257        1.01490094968742       -0.70701747459031
